  24
 benzene_monomer.xyz mdstep=          58
H  -1.0683423728999999  -0.0000000000000000   0.0000000000000000 
C  -0.0080275436000000  -0.0000000000000000   0.0000000000000000 
C   0.6959862136000000   1.2193876732000000   0.0000000000000000 
C   0.6959862136000000  -1.2193876732000000   0.0000000000000000 
C   2.1040137863999999   1.2193876732000000   0.0000000000000000 
C   2.1040137863999999  -1.2193876732000000   0.0000000000000000 
C   2.8080275436000002   0.0000000000000000   0.0000000000000000 
H   0.1658287699000000   2.1376472494000001   0.0000000000000000 
H   0.1658287699000000  -2.1376472494000001   0.0000000000000000 
H   2.6341712301000002   2.1376472494000001   0.0000000000000000 
H   2.6341712301000002  -2.1376472494000001   0.0000000000000000 
H   3.8683423728999999   0.0000000000000000   0.0000000000000000 
H  -1.0683423728999999  -0.0000000000000000   2.3999999999999999 
C  -0.0080275436000000  -0.0000000000000000   2.3999999999999999 
C   0.6959862136000000   1.2193876732000000   2.3999999999999999 
C   0.6959862136000000  -1.2193876732000000   2.3999999999999999 
C   2.1040137863999999   1.2193876732000000   2.3999999999999999 
C   2.1040137863999999  -1.2193876732000000   2.3999999999999999 
C   2.8080275436000002   0.0000000000000000   2.3999999999999999 
H   0.1658287699000000   2.1376472494000001   2.3999999999999999 
H   0.1658287699000000  -2.1376472494000001   2.3999999999999999 
H   2.6341712301000002   2.1376472494000001   2.3999999999999999 
H   2.6341712301000002  -2.1376472494000001   2.3999999999999999 
H   3.8683423728999999   0.0000000000000000   2.3999999999999999 
